Version 4
SHEET 1 1380 680
WIRE -912 -720 -2496 -720
WIRE -576 -720 -912 -720
WIRE -256 -720 -576 -720
WIRE -160 -720 -256 -720
WIRE -64 -720 -160 -720
WIRE 208 -720 -64 -720
WIRE 560 -720 208 -720
WIRE -576 -624 -576 -720
WIRE -64 -592 -64 -720
WIRE -640 -576 -736 -576
WIRE -160 -480 -160 -720
WIRE 16 -464 -128 -464
WIRE -912 -448 -912 -720
WIRE -736 -448 -736 -576
WIRE -352 -448 -416 -448
WIRE -192 -448 -288 -448
WIRE -64 -432 -64 -512
WIRE -64 -432 -128 -432
WIRE -2208 -384 -2368 -384
WIRE -2128 -384 -2208 -384
WIRE -1984 -384 -2128 -384
WIRE -1904 -384 -1984 -384
WIRE -416 -384 -416 -448
WIRE -64 -368 -64 -432
WIRE 160 -368 96 -368
WIRE 272 -368 240 -368
WIRE -2496 -352 -2496 -720
WIRE -2208 -352 -2208 -384
WIRE -2128 -352 -2128 -384
WIRE -1984 -352 -1984 -384
WIRE -1904 -352 -1904 -384
WIRE -1120 -288 -1152 -288
WIRE -1008 -288 -1056 -288
WIRE 208 -288 208 -720
WIRE -256 -272 -256 -720
WIRE 272 -272 272 -368
WIRE 272 -272 240 -272
WIRE 288 -272 272 -272
WIRE 576 -272 368 -272
WIRE -2368 -256 -2368 -384
WIRE 16 -256 16 -464
WIRE 16 -256 -224 -256
WIRE 96 -256 96 -368
WIRE 96 -256 16 -256
WIRE 176 -256 96 -256
WIRE -2208 -240 -2208 -272
WIRE -2192 -240 -2208 -240
WIRE -2128 -240 -2128 -272
WIRE -1984 -240 -1984 -272
WIRE -1904 -240 -1904 -272
WIRE -1904 -240 -1920 -240
WIRE -912 -240 -912 -368
WIRE -416 -240 -416 -320
WIRE -288 -240 -416 -240
WIRE 272 -240 240 -240
WIRE 368 -240 272 -240
WIRE 496 -240 448 -240
WIRE -736 -224 -736 -352
WIRE -640 -224 -736 -224
WIRE -576 -224 -640 -224
WIRE -64 -224 -64 -288
WIRE -64 -224 -224 -224
WIRE -1904 -192 -1904 -240
WIRE -1840 -192 -1904 -192
WIRE -1744 -192 -1776 -192
WIRE -1440 -192 -1744 -192
WIRE -1296 -192 -1376 -192
WIRE -1152 -192 -1152 -288
WIRE -1152 -192 -1232 -192
WIRE -1120 -192 -1152 -192
WIRE -1008 -192 -1008 -288
WIRE -1008 -192 -1040 -192
WIRE -976 -192 -1008 -192
WIRE -64 -176 -64 -224
WIRE -1744 -160 -1744 -192
WIRE -1712 -160 -1744 -160
WIRE -1600 -160 -1632 -160
WIRE -1536 -160 -1600 -160
WIRE -1440 -160 -1472 -160
WIRE -2208 -144 -2208 -240
WIRE -1904 -144 -1904 -192
WIRE -1600 -144 -1600 -160
WIRE 272 -144 272 -240
WIRE -2144 -96 -1984 -240
WIRE -1968 -96 -2128 -240
WIRE -2368 -16 -2368 -176
WIRE -2208 -16 -2208 -48
WIRE -2208 -16 -2368 -16
WIRE -1904 -16 -1904 -48
WIRE -1904 -16 -2208 -16
WIRE -2496 16 -2496 -272
WIRE -2368 16 -2368 -16
WIRE -1600 16 -1600 -80
WIRE -912 16 -912 -144
WIRE -736 16 -736 -224
WIRE -576 16 -576 -176
WIRE -256 16 -256 -208
WIRE -160 16 -160 -416
WIRE -64 16 -64 -96
WIRE 208 16 208 -224
WIRE 272 16 272 -64
WIRE 496 176 496 -240
WIRE 496 176 96 176
WIRE 576 176 576 -272
WIRE 928 176 576 176
WIRE 1360 176 1008 176
WIRE 96 224 96 176
WIRE 1360 336 1360 176
WIRE 96 352 96 304
FLAG 1360 336 0
FLAG -2496 16 0
FLAG -912 16 0
FLAG -1600 16 0
FLAG -2368 16 0
FLAG -736 16 0
FLAG -576 16 0
FLAG 96 352 0
FLAG -256 16 0
FLAG -160 16 0
FLAG -64 16 0
FLAG 208 16 0
FLAG 272 16 0
SYMBOL res 592 160 R90
WINDOW 0 0 56 VBottom 2
WINDOW 3 32 56 VTop 2
SYMATTR InstName R1
SYMATTR Value 5m
SYMBOL npn -1968 -144 R0
SYMATTR InstName Q1
SYMATTR Value 2SC1815-Y
SYMBOL npn -2144 -144 M0
SYMATTR InstName Q2
SYMATTR Value 2SC1815-Y
SYMBOL res -2224 -368 R0
SYMATTR InstName R5
SYMATTR Value 4.7k
SYMBOL res -1920 -368 R0
SYMATTR InstName R6
SYMATTR Value 4.7k
SYMBOL cap -2128 -256 R90
WINDOW 0 0 32 VBottom 2
WINDOW 3 32 32 VTop 2
SYMATTR InstName C1
SYMATTR Value 0.1µ
SYMBOL cap -1920 -256 R90
WINDOW 0 0 32 VBottom 2
WINDOW 3 32 32 VTop 2
SYMATTR InstName C2
SYMATTR Value 0.1µ
SYMBOL res -2144 -368 R0
SYMATTR InstName R7
SYMATTR Value 100k
SYMBOL res -2000 -368 R0
SYMATTR InstName R8
SYMATTR Value 100k
SYMBOL voltage -2368 -272 R0
WINDOW 123 0 0 Left 0
WINDOW 39 0 0 Left 0
SYMATTR InstName V1
SYMATTR Value 5
SYMBOL voltage -2496 -368 R0
WINDOW 123 0 0 Left 0
WINDOW 39 0 0 Left 0
SYMATTR InstName V2
SYMATTR Value 12V
SYMBOL Comparators\\LT1017 -160 -448 M0
SYMATTR InstName U2
SYMBOL Digital\\inv -1840 -256 R0
WINDOW 0 -1 37 Left 2
WINDOW 3 -15 90 Left 0
SYMATTR InstName A1
SYMATTR Value Vhigh=5V Vlow=0V Vt=2.5V Vh=0.5V
SYMBOL npn -976 -240 R0
SYMATTR InstName Q3
SYMATTR Value 2SC1815-Y
SYMBOL res -1024 -208 R90
WINDOW 0 0 56 VBottom 2
WINDOW 3 32 56 VTop 2
SYMATTR InstName R11
SYMATTR Value 47k
SYMBOL cap -1056 -304 R90
WINDOW 0 0 32 VBottom 2
WINDOW 3 32 32 VTop 2
SYMATTR InstName C3
SYMATTR Value 100p
SYMBOL res -928 -464 R0
SYMATTR InstName R12
SYMATTR Value 47k
SYMBOL Digital\\and -1408 -240 R0
WINDOW 3 -34 9 Left 0
SYMATTR Value Vhigh=5V Vlow=0V Vt=2.5V
SYMATTR InstName A2
SYMBOL res -1616 -176 R90
WINDOW 0 0 56 VBottom 2
WINDOW 3 32 56 VTop 2
SYMATTR InstName R13
SYMATTR Value 2.2k
SYMBOL cap -1616 -144 R0
SYMATTR InstName C4
SYMATTR Value 0.1µ
SYMBOL Digital\\inv -1536 -224 R0
WINDOW 0 -1 37 Left 2
WINDOW 3 -15 90 Left 0
SYMATTR InstName A3
SYMATTR Value Vhigh=5V Vlow=0V Vt=2.5V Vh=0.5V
SYMBOL Digital\\inv -1296 -256 R0
WINDOW 0 -1 37 Left 2
WINDOW 3 -15 90 Left 0
SYMATTR InstName A4
SYMATTR Value Vhigh=5V Vlow=0V Vt=2.5V Vh=0.5V
SYMBOL npn -672 -448 M0
SYMATTR InstName Q5
SYMATTR Value 2SC1815-Y
SYMBOL pnp -640 -528 M180
SYMATTR InstName Q4
SYMATTR Value 2SA1015-Y
SYMBOL npn -640 -272 R0
SYMATTR InstName Q6
SYMATTR Value 2SC1815-Y
SYMBOL res 1024 160 R90
WINDOW 0 0 56 VBottom 2
WINDOW 3 32 56 VTop 2
SYMATTR InstName R4
SYMATTR Value 10
SYMBOL OpAmps\\AD744 208 -320 M0
SYMATTR InstName U3
SYMBOL Comparators\\LT1017 -256 -240 M0
SYMATTR InstName U1
SYMBOL res -80 -384 R0
SYMATTR InstName R2
SYMATTR Value 100
SYMBOL res -80 -608 R0
SYMATTR InstName R3
SYMATTR Value 100k
SYMBOL res -80 -192 R0
SYMATTR InstName R9
SYMATTR Value 100k
SYMBOL diode -400 -320 R180
WINDOW 0 24 64 Left 2
WINDOW 3 24 0 Left 2
SYMATTR InstName D1
SYMBOL diode -288 -464 R90
WINDOW 0 0 32 VBottom 2
WINDOW 3 32 32 VTop 2
SYMATTR InstName D2
SYMBOL res 256 -160 R0
SYMATTR InstName R15
SYMATTR Value 100k
SYMBOL res 256 -384 R90
WINDOW 0 0 56 VBottom 2
WINDOW 3 32 56 VTop 2
SYMATTR InstName R16
SYMATTR Value 100k
SYMBOL res 384 -288 R90
WINDOW 0 0 56 VBottom 2
WINDOW 3 32 56 VTop 2
SYMATTR InstName R10
SYMATTR Value 10k
SYMBOL res 464 -256 R90
WINDOW 0 0 56 VBottom 2
WINDOW 3 32 56 VTop 2
SYMATTR InstName R14
SYMATTR Value 10k
SYMBOL current 96 224 R0
WINDOW 123 0 0 Left 0
WINDOW 39 0 0 Left 0
SYMATTR InstName I2
SYMATTR Value SINE(0 2 1k)
TEXT -2512 88 Left 2 !.tran 0.01
